

--------------------------------------------------------------------------------

Command: run Delft3D-FLOW
